test/IEEE39.m
function mpc = IEEE39
mpc.version = "2";
mpc.baseMVA = 100.0;

%% bus data
%	bus_i type Pd Qd Gs Bs area Vm Va baseKV zone Vmax Vmin
mpc.bus = [
     1  1     0.000     0.000     0.000     0.000   1  1.0000  0.0000 345.000   1  1.100  0.900;
     2  1     0.000     0.000     0.000     0.000   1  1.0000  0.0000 345.000   1  1.100  0.900;
     3  1     0.000     0.000   322.000    -2.400   1  1.0000  0.0000 345.000   1  1.100  0.900;
     4  1     0.000     0.000   500.000  -184.000   1  1.0000  0.0000 345.000   1  1.100  0.900;
     5  1     0.000     0.000     0.000     0.000   1  1.0000  0.0000 345.000   1  1.100  0.900;
     6  1     0.000     0.000     0.000     0.000   1  1.0000  0.0000 345.000   1  1.100  0.900;
     7  1     0.000     0.000   233.800   -84.000   1  1.0000  0.0000 345.000   1  1.100  0.900;
     8  1     0.000     0.000   522.000  -176.000   1  1.0000  0.0000 345.000   1  1.100  0.900;
     9  1     0.000     0.000     0.000     0.000   1  1.0000  0.0000 345.000   1  1.100  0.900;
    10  1     0.000     0.000     0.000     0.000   1  1.0000  0.0000 345.000   1  1.100  0.900;
    11  1     0.000     0.000     0.000     0.000   1  1.0000  0.0000 345.000   1  1.100  0.900;
    12  1     0.000     0.000     7.500   -88.000   1  1.0000  0.0000 154.000   1  1.100  0.900;
    13  1     0.000     0.000     0.000     0.000   1  1.0000  0.0000 345.000   1  1.100  0.900;
    14  1     0.000     0.000     0.000     0.000   1  1.0000  0.0000 345.000   1  1.100  0.900;
    15  1     0.000     0.000   320.000  -153.000   1  1.0000  0.0000 345.000   1  1.100  0.900;
    16  1     0.000     0.000   329.400   -32.300   1  1.0000  0.0000 345.000   1  1.100  0.900;
    17  1     0.000     0.000     0.000     0.000   1  1.0000  0.0000 345.000   1  1.100  0.900;
    18  1     0.000     0.000   158.000   -30.000   1  1.0000  0.0000 345.000   1  1.100  0.900;
    19  1     0.000     0.000     0.000     0.000   1  1.0000  0.0000 345.000   1  1.100  0.900;
    20  1     0.000     0.000   628.000  -103.000   1  1.0000  0.0000 345.000   1  1.100  0.900;
    21  1     0.000     0.000   274.000  -115.000   1  1.0000  0.0000 345.000   1  1.100  0.900;
    22  1     0.000     0.000     0.000     0.000   1  1.0000  0.0000 345.000   1  1.100  0.900;
    23  1     0.000     0.000   247.500   -84.600   1  1.0000  0.0000 345.000   1  1.100  0.900;
    24  1     0.000     0.000   308.600    92.200   1  1.0000  0.0000 345.000   1  1.100  0.900;
    25  1     0.000     0.000   224.000   -47.200   1  1.0000  0.0000 345.000   1  1.100  0.900;
    26  1     0.000     0.000   139.000   -17.000   1  1.0000  0.0000 345.000   1  1.100  0.900;
    27  1     0.000     0.000   281.000   -75.500   1  1.0000  0.0000 345.000   1  1.100  0.900;
    28  1     0.000     0.000   206.000   -27.600   1  1.0000  0.0000 345.000   1  1.100  0.900;
    29  1     0.000     0.000   283.500   -26.900   1  1.0000  0.0000 345.000   1  1.100  0.900;
    30  2     0.000     0.000     0.000     0.000   1  1.0000  0.0000  22.000   1  1.100  0.900;
    31  3     0.000     0.000     9.200    -4.600   1  1.0000  0.0000  22.000   1  1.100  0.900;
    32  2     0.000     0.000     0.000     0.000   1  1.0000  0.0000  22.000   1  1.100  0.900;
    33  2     0.000     0.000     0.000     0.000   1  1.0000  0.0000  22.000   1  1.100  0.900;
    34  2     0.000     0.000     0.000     0.000   1  1.0000  0.0000  22.000   1  1.100  0.900;
    35  2     0.000     0.000     0.000     0.000   1  1.0000  0.0000  22.000   1  1.100  0.900;
    36  2     0.000     0.000     0.000     0.000   1  1.0000  0.0000  22.000   1  1.100  0.900;
    37  2     0.000     0.000     0.000     0.000   1  1.0000  0.0000  22.000   1  1.100  0.900;
    38  2     0.000     0.000     0.000     0.000   1  1.0000  0.0000  22.000   1  1.100  0.900;
    39  2     0.000     0.000  1104.000  -250.000   1  1.0000  0.0000 345.000   1  1.100  0.900;
];

%% generator data - SyncMachine+Solar+Wind
%	bus Pg Qg Qmax Qmin Vg mBase status Pmax Pmin Pc1 Pc2 Qc1min Qc1max Qc2min Qc2max ramp_agc ramp_10 ramp_30 ramp_q apf
mpc.gen = [
    31  521.222  195.458  190.442 -190.442 1.0000  610.000 1  610.000    0.000 0.0 0.0 0.0 0.0 0.0 0.0 0.0 0.0 0.0 0.0 0.0;
    32  650.000  206.331  300.000 -224.784 1.0000  720.000 1  720.000    0.000 0.0 0.0 0.0 0.0 0.0 0.0 0.0 0.0 0.0 0.0 0.0;
    33  632.000  110.112  250.000 -218.540 1.0000  700.000 1  700.000    0.000 0.0 0.0 0.0 0.0 0.0 0.0 0.0 0.0 0.0 0.0 0.0;
    34  508.000  165.859  167.000 -174.832 1.0000  560.000 1  560.000    0.000 0.0 0.0 0.0 0.0 0.0 0.0 0.0 0.0 0.0 0.0 0.0;
    35  650.000  212.642  300.000 -100.000 1.0000  720.000 1  720.000    0.000 0.0 0.0 0.0 0.0 0.0 0.0 0.0 0.0 0.0 0.0 0.0;
    36  560.000  101.306  240.000 -190.442 1.0000  610.000 1  610.000    0.000 0.0 0.0 0.0 0.0 0.0 0.0 0.0 0.0 0.0 0.0 0.0;
    37  540.000    0.622  250.000 -187.320 1.0000  600.000 1  600.000    0.000 0.0 0.0 0.0 0.0 0.0 0.0 0.0 0.0 0.0 0.0 0.0;
    38  830.000   22.960  300.000 -287.224 1.0000  920.000 1  920.000    0.000 0.0 0.0 0.0 0.0 0.0 0.0 0.0 0.0 0.0 0.0 0.0;
    39 1000.000   88.985 9999.000 -9999.000 1.0000 10000.000 1 10000.000    0.000 0.0 0.0 0.0 0.0 0.0 0.0 0.0 0.0 0.0 0.0 0.0;
    30  250.000  146.456  400.000 -480.000 1.0000  480.000 1  480.000    0.000 0.0 0.0 0.0 0.0 0.0 0.0 0.0 0.0 0.0 0.0 0.0;
];

%% branch data - BESLine+BESCompSeries+collected transformers
%	fbus tbus r x b rateA rateB rateC ratio angle status angmin angmax
mpc.branch = [
    10    11  0.000400  0.004300  0.072902  600.000 0.0 0.0 0.0 0.0 1 0.0 0.0;
    10    13  0.000400  0.004300  0.072902  600.000 0.0 0.0 0.0 0.0 1 0.0 0.0;
    13    14  0.000899  0.010097  0.172325  600.000 0.0 0.0 0.0 0.0 1 0.0 0.0;
    14    15  0.001795  0.021671  0.366242  600.000 0.0 0.0 0.0 0.0 1 0.0 0.0;
    15    16  0.000900  0.009398  0.171023  600.000 0.0 0.0 0.0 0.0 1 0.0 0.0;
    16    17  0.000700  0.008898  0.134213  600.000 0.0 0.0 0.0 0.0 1 0.0 0.0;
    16    19  0.001597  0.019481  0.304150  600.000 0.0 0.0 0.0 0.0 1 0.0 0.0;
    16    21  0.000799  0.013492  0.254873  600.000 0.0 0.0 0.0 0.0 1 0.0 0.0;
    16    24  0.000300  0.005900  0.068002  600.000 0.0 0.0 0.0 0.0 1 0.0 0.0;
    17    18  0.000700  0.008199  0.131912  600.000 0.0 0.0 0.0 0.0 1 0.0 0.0;
    17    27  0.001298  0.017284  0.321749  600.000 0.0 0.0 0.0 0.0 1 0.0 0.0;
     1     2  0.003467  0.040905  0.700377  600.000 0.0 0.0 0.0 0.0 1 0.0 0.0;
     1    39  0.000994  0.024922  0.751174 1000.000 0.0 0.0 0.0 0.0 1 0.0 0.0;
    21    22  0.000799  0.013992  0.256577  900.000 0.0 0.0 0.0 0.0 1 0.0 0.0;
    22    23  0.000600  0.009597  0.184627  600.000 0.0 0.0 0.0 0.0 1 0.0 0.0;
    23    24  0.002191  0.034927  0.361381  600.000 0.0 0.0 0.0 0.0 1 0.0 0.0;
    25    26  0.003182  0.032212  0.513710  600.000 0.0 0.0 0.0 0.0 1 0.0 0.0;
    26    27  0.001398  0.014691  0.239670  600.000 0.0 0.0 0.0 0.0 1 0.0 0.0;
    26    28  0.004247  0.047111  0.782613  600.000 0.0 0.0 0.0 0.0 1 0.0 0.0;
    26    29  0.005578  0.061838  1.034550  600.000 0.0 0.0 0.0 0.0 1 0.0 0.0;
    28    29  0.001398  0.015091  0.249078  600.000 0.0 0.0 0.0 0.0 1 0.0 0.0;
     2    25  0.006997  0.008599  0.146015  500.000 0.0 0.0 0.0 0.0 1 0.0 0.0;
     2     3  0.001298  0.015090  0.257283  500.000 0.0 0.0 0.0 0.0 1 0.0 0.0;
     3    18  0.001099  0.013294  0.213851  500.000 0.0 0.0 0.0 0.0 1 0.0 0.0;
     3     4  0.001298  0.021283  0.221487  500.000 0.0 0.0 0.0 0.0 1 0.0 0.0;
     4    14  0.000800  0.012896  0.138221  500.000 0.0 0.0 0.0 0.0 1 0.0 0.0;
     4     5  0.000800  0.012796  0.134219  600.000 0.0 0.0 0.0 0.0 1 0.0 0.0;
     5     6  0.000200  0.002600  0.043400 1200.000 0.0 0.0 0.0 0.0 1 0.0 0.0;
     5     8  0.000800  0.011197  0.147620  900.000 0.0 0.0 0.0 0.0 1 0.0 0.0;
     6    11  0.000700  0.008198  0.138913  480.000 0.0 0.0 0.0 0.0 1 0.0 0.0;
     6     7  0.000600  0.009198  0.113010  900.000 0.0 0.0 0.0 0.0 1 0.0 0.0;
     7     8  0.000400  0.004600  0.078002  900.000 0.0 0.0 0.0 0.0 1 0.0 0.0;
     8     9  0.002289  0.036217  0.380838  900.000 0.0 0.0 0.0 0.0 1 0.0 0.0;
     9    39  0.000990  0.024875  1.203009  900.000 0.0 0.0 0.0 0.0 1 0.0 0.0;
    10    32  0.000000  0.020000 0.0  900.000 1200.000 1500.000 1.070000 0.0 1 0.0 0.0;
    12    11  0.001600  0.043500 0.0  500.000  666.667  833.333 1.006000 0.0 1 0.0 0.0;
    12    13  0.001600  0.043500 0.0  500.000  666.667  833.333 1.006000 0.0 1 0.0 0.0;
    19    20  0.000700  0.013800 0.0  900.000 1200.000 1500.000 1.060000 0.0 1 0.0 0.0;
    19    33  0.000700  0.014200 0.0  900.000 1200.000 1500.000 1.070000 0.0 1 0.0 0.0;
    20    34  0.000900  0.018000 0.0  900.000 1200.000 1500.000 1.009000 0.0 1 0.0 0.0;
    22    35  0.000000  0.014300 0.0  900.000 1200.000 1500.000 1.025000 0.0 1 0.0 0.0;
    23    36  0.000500  0.027200 0.0  900.000 1200.000 1500.000 1.000000 0.0 1 0.0 0.0;
    25    37  0.000600  0.023200 0.0  900.000 1200.000 1500.000 1.025000 0.0 1 0.0 0.0;
    29    38  0.000800  0.015600 0.0 1200.000 1600.000 2000.000 1.025000 0.0 1 0.0 0.0;
     2    30  0.000000  0.018100 0.0  900.000 1200.000 1500.000 1.025000 0.0 1 0.0 0.0;
     6    31  0.000000  0.025000 0.0  900.000 1200.000 1500.000 1.068750 0.0 1 0.0 0.0;
];

%%-----  OPF Data  -----%%
%% generator cost data
%	1 startup shutdown n x1 y1 ... xn yn
%	2 startup shutdown n c(n-1) ... c0
mpc.gencost = [
  2 0 0 3 0.0060000 45.000 2230.000;
  2 0 0 3 0.0060000 45.000 2230.000;
  2 0 0 3 0.0060000 45.000 2230.000;
  2 0 0 3 0.0060000 45.000 2230.000;
  2 0 0 3 0.0060000 45.000 2230.000;
  2 0 0 3 0.0060000 45.000 2230.000;
  2 0 0 3 0.0060000 45.000 2230.000;
  2 0 0 3 0.0060000 45.000 2230.000;
  2 0 0 3 0.0060000 45.000 2230.000;
  2 0 0 3 0.0000100 0.010 0.000;
];

%% generator unit type (see GENTYPES)
% use WT, PV, HY, ST, CT, ST for corresponding GENFUELS
% WT and PV will use WECC dynamics; the others will use Gov/Exc/PSS dynamics
mpc.gentype = {
  'ST';
  'ST';
  'ST';
  'ST';
  'ST';
  'ST';
  'ST';
  'ST';
  'ST';
  'PV';
};

%% generator fuel type (see GENFUELS); use wind, solar, hydro, nuclear, ng, coal
mpc.genfuel = {
  'ng';
  'ng';
  'ng';
  'ng';
  'ng';
  'ng';
  'ng';
  'ng';
  'ng';
  'solar';
};

%% bus names
mpc.bus_name = {
  '1';
  '2';
  '3';
  '4';
  '5';
  '6';
  '7';
  '8';
  '9';
  '10';
  '11';
  '12';
  '13';
  '14';
  '15';
  '16';
  '17';
  '18';
  '19';
  '20';
  '21';
  '22';
  '23';
  '24';
  '25';
  '26';
  '27';
  '28';
  '29';
  '30';
  '31';
  '32';
  '33';
  '34';
  '35';
  '36';
  '37';
  '38';
  '39';
};

%% bus ids
mpc.bus_id = {
  '8DF88C0E-772B-4F4C-868B-F492885F02AE';
  '8FA18F25-C9FB-45B2-B58C-27106C6DDC12';
  '17B6F77B-7FB6-47A1-BFAE-330DAA96CFEC';
  'A15CFD3F-F06D-4F89-8EAD-0CBC5A0864A5';
  '10E26AF2-5B21-4A2E-BFDE-D72A5B89154C';
  '5E850F3C-2674-4881-80FC-154CC3D4A3AB';
  'B73DB4DE-2BB2-4439-8DB0-89EA909B1F97';
  '644E0500-37C9-47B7-9C24-F6DCE06F4036';
  '546E388F-66BD-4823-BCA5-87089BC3D51C';
  '0C666C9F-577D-4F90-B1BB-82076E173F73';
  '9E4D17E6-0563-457B-A5D2-1C672F67DDE1';
  'A8CC1654-168C-4BE7-B6A5-6CE5BEAEB1CF';
  '41B97862-4C6D-4CCC-B013-09CCB43C4F2D';
  '3F31D15F-A466-4BC9-9F87-18ED1C5EC2BA';
  'F6FA6F49-59B1-4431-AE39-CB886E40EAA0';
  '66EC26B6-89A5-46FC-A50C-430124472DA9';
  '4E2C9CAD-84E3-4C05-A48F-9D6A7F287A79';
  '25CD8120-8BD8-4C66-937C-482862505F62';
  '218A8A33-8366-40D5-B308-0C26A062F982';
  '55ADDB1A-9D86-475F-823D-8DB1B4615AF3';
  'B05235D0-AF91-41A2-8CC7-221B0C0C3BA0';
  'B6E3038F-03F7-41D5-AE53-3697CFA60199';
  'E02C1B2E-EAAD-4406-8D76-222D71F59D7C';
  'C2207E84-7E1E-4966-B215-722F27A1659D';
  '2C9C6B03-90A7-4BFD-A5FA-A6E8261CD03A';
  '2E242D31-5520-4F28-9F07-4E810834107E';
  'F7CE7CF4-84FB-436B-927D-93526B3D8F31';
  '93C0A1C5-E4A0-48AA-AAB5-CF69A2485B5E';
  'D7D64718-EF46-4D90-A36A-1AE802401649';
  '99043E7E-E9B1-4497-A35D-AE70E65CBA70';
  '4823C4CD-BC92-4AE6-9D3F-29E80474F6D1';
  '46E66A22-13BB-40EC-BBC5-E916DB51EC91';
  '99D724A8-4441-40FA-9B93-0BE877AACB6F';
  '3062B20D-81F5-472A-BE9A-A1C4143000A0';
  '17CA49BC-9DBC-4045-957B-5952F82CA6C5';
  '58763357-CD4D-45EA-B7BE-064525D9E62F';
  '1A521D68-3DD6-4F84-8E95-BEB7C4278893';
  '102FA9C9-B143-4FB5-A82A-BBAB9F4D79B4';
  '4CCAE276-D507-4482-8642-ED8E2856ED48';
};

%% gen t1 ids
mpc.gen_t1_id = {
  '9D92B671-C3CD-43AF-87D9-3F2DD721CFC6_1';
  '545E6435-603C-495F-889D-1EFF053CEA07_1';
  'D7CD2D21-075B-48A6-9A17-786681F00841_1';
  '29376CE7-B3C4-45AA-AAA5-9EF4D97E5C27_1';
  'B2B315B3-8D9A-44B1-BC3E-4AF653A3D63E_1';
  '923EB9BC-C647-4097-AF04-2CD1B02EBD6E_1';
  'EE10F878-5399-4F71-9C07-1D34B5408E8F_1';
  'B8739BD7-1875-4790-951B-C4D31227364A_1';
  'FE33FE4E-6941-4D8A-8D12-074B0BED9138_1';
  '1302CBF0-B6D1-4AD7-8456-BCD6FD34FC2F_1';
};

%% branch t1 ids
mpc.branch_t1_id = {
  '0D3E2176-CA47-45F1-9E13-D1B349F116DC_1';
  '9031CCFF-C9A4-436C-9610-CF88C0430709_1';
  '37359B47-C812-495F-BCDE-2DF08C0ADB93_1';
  '43548FA7-7A98-423D-A096-9E48317B8BB8_1';
  '03B54FCF-54D2-4908-9263-D5E232165FD3_1';
  'D627B7C3-8E70-4E29-93CC-4AEDCA07044A_1';
  '194CC57F-D0E8-47AB-8068-7B1A08207BCC_1';
  '2F8BDA88-35FF-4982-AEF1-A93BEDD974AD_1';
  '6AD479AD-D268-49A9-8CC4-77022521B429_1';
  '39D36C9C-1489-4492-B23C-AE8A6968CEE7_1';
  '3FB39096-AF68-4FDF-8F67-E86880AE3459_1';
  'BA863D34-1DC7-4AD0-8E12-B28E633A16A4_1';
  '5D9810EC-95A7-4F86-A165-65648B12E9F0_1';
  '3725E4B4-88A0-4A37-B96C-B4409C12500E_1';
  '2181AA34-4CF8-4037-8C9B-90F0D744F888_1';
  '91427565-6C09-4B58-AC5D-4DB5D6D0F475_1';
  'DD650028-F696-44F0-8EBE-E780C23BDF9B_1';
  'FC571C2F-57DB-4C14-B1FD-5885E0177A7F_1';
  '0B5D0660-00F2-47A9-9855-59DC93552B9F_1';
  'CAC940CE-B458-4D92-A155-474FDB4BF8BB_1';
  'E38E17FC-FB0F-441B-9BF2-9A4617A33DB4_1';
  'DC9A39E0-49F9-4821-A85A-2F78F0CFEF68_1';
  'AE7B39FE-2F8C-4BF6-B5BE-BDB490A7B802_1';
  '325FD2AC-6CC0-47FE-8FE2-F576DA4BA067_1';
  '9BD8A8F7-39FC-40C4-8AEE-68ED9F74BC93_1';
  '71C67751-A509-46BF-B41E-CCE1AD689084_1';
  'D82CA7E9-3A4B-4DCF-9546-D724C6D27FA9_1';
  'DB4CF0DB-7E8D-43A7-8244-4C56D7AE51CE_1';
  'DBD9327B-3824-435F-9142-C8E9CD5C7BC0_1';
  '5C6181B4-6FE6-45B4-800D-FD28AB64FA05_1';
  'FE2A5722-4BC2-465E-95E3-06318E30E910_1';
  'D08CA395-BC57-45BF-81FB-DD43B1123716_1';
  'FCDB9E91-83A2-4DD8-A9F1-39CABFED8D3B_1';
  'B43B21CC-C758-46B7-9DB5-42E6E00EC934_1';
  '2F56565A-2821-4FAC-A438-E9EE355DDF6C_1';
  'C9B1A06E-8E32-4860-AD0B-9C5D26A6BB8E_1';
  '9F97CE42-BFE8-44F2-AAA8-090B279C564B_1';
  'D43AAFB1-B3C7-4BFE-A967-C692AA09C470_1';
  '2EE808FC-3672-4A14-8197-1F1B92225C5B_1';
  'A37FDBFC-DBE9-4F18-A9AD-876D3776D9A7_1';
  '2CFF09B5-23CC-4C83-AC9C-FB7E11240CA5_1';
  'F5F4E8BC-1F85-4512-A3FA-B6D00FCF1F0F_1';
  '548B9686-F837-450E-B9C6-D68AED16B090_1';
  '4A6D2732-505A-4272-88DF-68C2A56F346C_1';
  '7AAAC666-70F7-42E7-B550-A83EB2A62429_1';
  '0CAA8F84-7140-4CED-938F-C9CEC330DB30_1';
};

%% branch t2 ids
mpc.branch_t2_id = {
  '0D3E2176-CA47-45F1-9E13-D1B349F116DC_2';
  '9031CCFF-C9A4-436C-9610-CF88C0430709_2';
  '37359B47-C812-495F-BCDE-2DF08C0ADB93_2';
  '43548FA7-7A98-423D-A096-9E48317B8BB8_2';
  '03B54FCF-54D2-4908-9263-D5E232165FD3_2';
  'D627B7C3-8E70-4E29-93CC-4AEDCA07044A_2';
  '194CC57F-D0E8-47AB-8068-7B1A08207BCC_2';
  '2F8BDA88-35FF-4982-AEF1-A93BEDD974AD_2';
  '6AD479AD-D268-49A9-8CC4-77022521B429_2';
  '39D36C9C-1489-4492-B23C-AE8A6968CEE7_2';
  '3FB39096-AF68-4FDF-8F67-E86880AE3459_2';
  'BA863D34-1DC7-4AD0-8E12-B28E633A16A4_2';
  '5D9810EC-95A7-4F86-A165-65648B12E9F0_2';
  '3725E4B4-88A0-4A37-B96C-B4409C12500E_2';
  '2181AA34-4CF8-4037-8C9B-90F0D744F888_2';
  '91427565-6C09-4B58-AC5D-4DB5D6D0F475_2';
  'DD650028-F696-44F0-8EBE-E780C23BDF9B_2';
  'FC571C2F-57DB-4C14-B1FD-5885E0177A7F_2';
  '0B5D0660-00F2-47A9-9855-59DC93552B9F_2';
  'CAC940CE-B458-4D92-A155-474FDB4BF8BB_2';
  'E38E17FC-FB0F-441B-9BF2-9A4617A33DB4_2';
  'DC9A39E0-49F9-4821-A85A-2F78F0CFEF68_2';
  'AE7B39FE-2F8C-4BF6-B5BE-BDB490A7B802_2';
  '325FD2AC-6CC0-47FE-8FE2-F576DA4BA067_2';
  '9BD8A8F7-39FC-40C4-8AEE-68ED9F74BC93_2';
  '71C67751-A509-46BF-B41E-CCE1AD689084_2';
  'D82CA7E9-3A4B-4DCF-9546-D724C6D27FA9_2';
  'DB4CF0DB-7E8D-43A7-8244-4C56D7AE51CE_2';
  'DBD9327B-3824-435F-9142-C8E9CD5C7BC0_2';
  '5C6181B4-6FE6-45B4-800D-FD28AB64FA05_2';
  'FE2A5722-4BC2-465E-95E3-06318E30E910_2';
  'D08CA395-BC57-45BF-81FB-DD43B1123716_2';
  'FCDB9E91-83A2-4DD8-A9F1-39CABFED8D3B_2';
  'B43B21CC-C758-46B7-9DB5-42E6E00EC934_2';
  '2F56565A-2821-4FAC-A438-E9EE355DDF6C_2';
  'C9B1A06E-8E32-4860-AD0B-9C5D26A6BB8E_2';
  '9F97CE42-BFE8-44F2-AAA8-090B279C564B_2';
  'D43AAFB1-B3C7-4BFE-A967-C692AA09C470_2';
  '2EE808FC-3672-4A14-8197-1F1B92225C5B_2';
  'A37FDBFC-DBE9-4F18-A9AD-876D3776D9A7_2';
  '2CFF09B5-23CC-4C83-AC9C-FB7E11240CA5_2';
  'F5F4E8BC-1F85-4512-A3FA-B6D00FCF1F0F_2';
  '548B9686-F837-450E-B9C6-D68AED16B090_2';
  '4A6D2732-505A-4272-88DF-68C2A56F346C_2';
  '7AAAC666-70F7-42E7-B550-A83EB2A62429_2';
  '0CAA8F84-7140-4CED-938F-C9CEC330DB30_2';
};
